/*--------------------------------*- C++ -*----------------------------------*\
| =========                 |                                                 |
| \\      /  F ield         | OpenFOAM: The Open Source CFD Toolbox           |
|  \\    /   O peration     | Version:  5.x                                   |
|   \\  /    A nd           | Web:      www.OpenFOAM.org                      |
|    \\/     M anipulation  |                                                 |
\*---------------------------------------------------------------------------*/
FoamFile
{
    version     2.0;
    format      ascii;
    class       volScalarField;
    object      T;
}
// * * * * * * * * * * * * * * * * * * * * * * * * * * * * * * * * * * * * * //

dimensions      [0 0 0 1 0 0 0];

internalField   uniform 273;

boundaryField
{
    adiabaticWalls 
    {
        type            zeroGradient;
    }

    constWall 
    {
        type            fixedValue;
        value           uniform 273;
    }

    hotWall 
    {
        type            fixedValue;
        value           uniform 500;
    }

    front
    {
        type            empty;
    }

    back
    {
        type            empty;
    }

    ACMI1_blockage
    {
        type            zeroGradient;
    }

    ACMI2_blockage
    {
        type            zeroGradient;
    }

    ACMI1_couple
    {
        type            cyclicACMI;
        value           uniform 0;
    }

    ACMI2_couple
    {
        type            cyclicACMI;
        value           uniform 0;
    }
}

// ************************************************************************* //
