/*--------------------------------*- C++ -*----------------------------------*\
| =========                 |                                                 |
| \\      /  F ield         | OpenFOAM: The Open Source CFD Toolbox           |
|  \\    /   O peration     | Version:  5                                     |
|   \\  /    A nd           | Web:      www.OpenFOAM.org                      |
|    \\/     M anipulation  |                                                 |
\*---------------------------------------------------------------------------*/
FoamFile
{
    version     2.0;
    format      ascii;
    class       volScalarField;
    location    "1";
    object      nuTilda;
}
// * * * * * * * * * * * * * * * * * * * * * * * * * * * * * * * * * * * * * //

dimensions      [0 2 -1 0 0 0 0];

internalField   uniform 0;

boundaryField
{
    inlet 
    {
        type            fixedValue;
        value           uniform 0;
    }
    outlet 
    {
        type            fixedValue;
        value           uniform 0;
    }

    train
    {
        type            fixedValue;
        value           uniform 0;
    }


    outside
    {
        type            fixedValue;
        value           uniform 0;
    }

    #include "include/frontBackPatches"

    AMI1
    {
        type            cyclicACMI;
        value           $internalField;
    }

    AMI2
    {
        type            cyclicACMI;
        value           $internalField;
    }
}


// ************************************************************************* //
