/*--------------------------------*- C++ -*----------------------------------*\
| =========                 |                                                 |
| \\      /  F ield         | OpenFOAM: The Open Source CFD Toolbox           |
|  \\    /   O peration     | Version:  5.x                                   |
|   \\  /    A nd           | Web:      www.OpenFOAM.org                      |
|    \\/     M anipulation  |                                                 |
\*---------------------------------------------------------------------------*/
FoamFile
{
    version     2.0;
    format      ascii;
    class       dictionary;
    object      fvSolution;
}
// * * * * * * * * * * * * * * * * * * * * * * * * * * * * * * * * * * * * * //

solvers
{
    T
    {
        solver          PBiCGStab;
        preconditioner  DILU;
         
        tolerance       1e-10;
        relTol          0.01;
    }

    TFinal
    {
        $T;
        tolerance       1e-10;
        relTol          0;
    }
}

SIMPLE
{
}

relaxationFactors
{
    fields
    {
    }
    equations
    {
        T           0.4;
        TFinal      1;
    }
}

cache
{
    grad(U);
}

// ************************************************************************* //
